Version 4
SHEET 1 2580 1076
WIRE -384 48 -432 48
WIRE -176 48 -384 48
WIRE -128 48 -176 48
WIRE 32 48 -48 48
WIRE 144 48 32 48
WIRE 304 48 208 48
WIRE 528 48 528 0
WIRE 528 48 304 48
WIRE -384 96 -384 48
WIRE -176 112 -176 48
WIRE 32 112 32 48
WIRE 528 112 528 48
WIRE 304 128 304 48
WIRE 32 208 32 192
WIRE -384 256 -384 176
WIRE -384 256 -448 256
WIRE -176 256 -176 176
WIRE -176 256 -384 256
WIRE 32 256 32 208
WIRE 32 256 -176 256
WIRE 304 256 304 192
WIRE 304 256 32 256
WIRE 528 256 528 192
WIRE 528 256 304 256
WIRE -448 272 -448 256
WIRE 0 560 0 528
FLAG -448 272 0
FLAG -16 192 PWM
FLAG 0 448 PWM
FLAG 0 560 0
FLAG 528 0 Vout
FLAG -432 48 Vin
SYMBOL voltage -384 80 R0
WINDOW 3 25 72 Left 2
WINDOW 123 0 0 Left 0
WINDOW 39 0 0 Left 0
SYMATTR Value {Vsupp}
SYMATTR InstName V1
SYMBOL voltage 0 432 R0
WINDOW 3 24 96 Invisible 2
WINDOW 123 0 0 Left 0
WINDOW 39 0 0 Left 0
SYMATTR Value PULSE(0 9 0 0.000000008 0.000000008 {duty*0.00002} 0.00002)
SYMATTR InstName V2
SYMBOL current 528 112 R0
WINDOW 123 0 0 Left 0
WINDOW 39 0 0 Left 0
SYMATTR InstName I1
SYMATTR Value {Iout}
SYMBOL InfineonNMOS\\IPA052N08NM5S_L0 -16 112 R0
SYMATTR InstName U1
SYMBOL diode 144 64 R270
WINDOW 0 32 32 VTop 2
WINDOW 3 0 32 VBottom 2
SYMATTR InstName D1
SYMATTR Value DRBR5LAM60ATF
SYMBOL ind -144 64 R270
WINDOW 0 32 56 VTop 2
WINDOW 3 5 56 VBottom 2
SYMATTR InstName L1
SYMATTR Value 470µ
SYMATTR SpiceLine Ipk=3 Rser=0.11 Rpar=9050 Cpar=55.774p
SYMBOL polcap 288 128 R0
WINDOW 3 24 56 Left 2
SYMATTR Value 3300µ
SYMATTR InstName C1
SYMATTR Description Capacitor
SYMATTR Type cap
SYMATTR SpiceLine V=63 Irms=3.12 Rser=0.0407
SYMBOL cap -192 112 R0
SYMATTR InstName C2
SYMATTR Value 100n
TEXT 688 32 Left 2 !.MODEL SW SW(Ron=0.0001 Roff=10Meg Vt=.5 Vh=0)
TEXT 688 120 Left 2 !.tran 2
TEXT 696 248 Left 2 ;.ic V(Vout)=39.3 I(L1)={ILinit}
TEXT 688 -16 Left 2 !.param ILinit=39.3/Vsupp
TEXT 688 80 Left 2 !.param Vsupp=24 duty=1-Vsupp/40
TEXT 688 160 Left 2 !.param Iout 1
TEXT 696 360 Left 2 !.meas TRAN PIN AVG (-V(Vin)*I(V1)) FROM 1999.84ms TO 1999.98ms
TEXT 696 416 Left 2 !.meas TRAN POUT AVG (V(Vout)*I(I1)) FROM 1999.84ms TO 1999.98ms
TEXT 696 520 Left 2 !.meas TRAN V_ripple PP V(Vout) FROM 1999.84ms TO 1999.98ms
TEXT 696 576 Left 2 !.meas TRAN Vfinal AVG (V(vout)) FROM 1999.84ms TO 1999.98ms
TEXT 696 632 Left 2 !.meas TRAN eff PARAM POUT/PIN
TEXT 696 464 Left 2 !.meas TRAN I_ripple PP I(L1) FROM 1999.84ms TO 1999.98ms
TEXT 696 688 Left 2 !.meas TRAN V_peak MAX V(Vout)
TEXT 696 744 Left 2 !.meas TRAN Overshoot PARAM (V_peak-Vfinal)/Vfinal
TEXT 696 296 Left 2 !.ic V(Vout)=0 I(L1)=0
TEXT 696 800 Left 2 !.meas TRAN v_90 FIND time WHEN V(Vout)=0.9*{Vfinal} RISE=1
TEXT 696 856 Left 2 !.meas TRAN v_10 FIND time WHEN V(Vout)=0.1*{Vfinal} RISE=1
TEXT 696 896 Left 2 !.meas TRAN rise_time PARAM v_90-v_10
TEXT 696 952 Left 2 !.meas TRAN tsettle FIND time WHEN abs(V(Vout) - {Vfinal})=0.02*abs({Vfinal}) RISE=LAST
TEXT 40 696 Left 2 !.MODEL DRBR5LAM60ATF D\n+ IS=648.10E-9\n+ N=.94915\n+ RS=16.414E-3\n+ IKF=1.8382\n+ XTI=2\n+ EG=.69\n+ CJO=839.22E-12\n+ M=.53961\n+ VJ=.50407\n+ ISR=6.2071E-6\n+ NR=1.2000\n+ BV=60\n+ TRS1=0.0060
