Version 4.1
SHEET 1 1304 1204
WIRE -912 -64 -960 -64
WIRE -624 -64 -912 -64
WIRE -496 -64 -544 -64
WIRE -448 -64 -496 -64
WIRE -352 -64 -448 -64
WIRE -288 -64 -352 -64
WIRE -144 -64 -208 -64
WIRE -48 -64 -144 -64
WIRE 80 -64 16 -64
WIRE 192 -64 80 -64
WIRE -544 -32 -544 -64
WIRE -448 -32 -448 -64
WIRE 192 48 192 -64
WIRE -960 64 -960 -64
WIRE 80 64 80 -64
WIRE -624 80 -624 -64
WIRE -544 80 -544 32
WIRE -544 80 -624 80
WIRE -352 80 -352 -64
WIRE -144 96 -144 -64
WIRE -448 128 -448 32
WIRE -448 128 -624 128
WIRE -544 160 -544 80
WIRE -448 160 -448 128
WIRE -192 176 -192 160
WIRE -144 192 -144 176
WIRE -960 288 -960 144
WIRE -912 288 -960 288
WIRE -624 288 -624 128
WIRE -624 288 -912 288
WIRE -544 288 -544 224
WIRE -448 288 -448 224
WIRE -448 288 -544 288
WIRE -352 288 -352 144
WIRE -352 288 -448 288
WIRE -144 288 -144 192
WIRE -144 288 -352 288
WIRE 80 288 80 128
WIRE 80 288 -144 288
WIRE 192 288 192 128
WIRE 192 288 80 288
WIRE -544 304 -544 288
WIRE -432 368 -464 368
WIRE -432 384 -432 368
WIRE 480 496 288 496
WIRE -432 512 -432 496
WIRE -1136 528 -1168 528
WIRE -1120 528 -1136 528
WIRE -1040 528 -1056 528
WIRE -1008 528 -1040 528
WIRE -704 528 -944 528
WIRE -512 528 -528 528
WIRE -464 528 -512 528
WIRE -384 528 -400 528
WIRE -352 528 -384 528
WIRE -288 528 -304 528
WIRE -256 528 -288 528
WIRE 48 528 -192 528
WIRE 144 528 112 528
WIRE 288 528 288 496
WIRE 288 528 256 528
WIRE 368 528 288 528
WIRE 480 528 480 496
WIRE 592 528 576 528
WIRE 672 528 656 528
WIRE -448 592 -480 592
WIRE -432 592 -448 592
WIRE -320 592 -320 560
WIRE -320 592 -368 592
WIRE -1040 608 -1040 528
WIRE -1008 608 -1040 608
WIRE -896 608 -944 608
WIRE -704 608 -720 608
WIRE -672 608 -672 560
WIRE -672 608 -704 608
WIRE -288 608 -288 528
WIRE -256 608 -288 608
WIRE -144 608 -192 608
WIRE 48 608 32 608
WIRE 80 608 80 560
WIRE 80 608 48 608
WIRE 624 608 624 560
WIRE -1168 656 -1168 528
WIRE -480 656 -480 592
WIRE 624 720 624 688
WIRE -864 752 -864 640
WIRE -816 752 -864 752
WIRE -704 752 -704 608
WIRE -704 752 -752 752
WIRE -112 752 -112 640
WIRE -64 752 -112 752
WIRE 48 752 48 608
WIRE 48 752 0 752
FLAG -544 304 0
FLAG -912 -64 AC_L
FLAG 192 -64 DC_P
FLAG -912 288 AC_N
FLAG -1168 736 0
FLAG -1088 560 DC_P
FLAG -1136 528 v*
FLAG -512 528 ia*
FLAG -464 368 DC_AC
FLAG -480 736 0
FLAG 368 528 m*
FLAG -448 592 il
FLAG -384 528 il*
FLAG -496 -64 DC_AC
FLAG -96 160 0
FLAG 672 528 PWM
FLAG -192 160 PWM
FLAG 624 720 0
SYMBOL voltage -960 48 R0
WINDOW 123 0 0 Left 2
WINDOW 39 0 0 Left 2
SYMATTR InstName V1
SYMATTR Value SINE(0 {24*sqrt(2)} 50)
SYMBOL diode -560 32 M180
WINDOW 0 24 64 Left 2
WINDOW 3 24 0 Left 2
SYMATTR InstName D2
SYMBOL res 176 32 R0
SYMATTR InstName R1
SYMATTR Value 40
SYMBOL diode -560 224 M180
WINDOW 0 24 64 Left 2
WINDOW 3 24 0 Left 2
SYMATTR InstName D3
SYMBOL diode -464 32 M180
WINDOW 0 24 64 Left 2
WINDOW 3 24 0 Left 2
SYMATTR InstName D4
SYMBOL diode -464 224 M180
WINDOW 0 24 64 Left 2
WINDOW 3 24 0 Left 2
SYMATTR InstName D5
SYMBOL ind -304 -48 R270
WINDOW 0 32 56 VTop 2
WINDOW 3 5 56 VBottom 2
SYMATTR InstName L1
SYMATTR Value 330µ
SYMBOL voltage -1168 640 R0
WINDOW 123 0 0 Left 2
WINDOW 39 0 0 Left 2
SYMATTR InstName V3
SYMATTR Value 40
SYMBOL sub -1104 560 R0
SYMATTR InstName U8
SYMBOL mul -448 496 M180
SYMATTR InstName U15
SYMBOL bv -480 640 R0
SYMATTR InstName B1
SYMATTR Value V=I(L1)
SYMBOL sub -336 560 R0
SYMATTR InstName U12
SYMBOL LTspiceControlLibrary\\Discrete\\UnitDelay -768 720 R180
SYMATTR Value T=2e-5
SYMATTR InstName U3
SYMBOL Proportional -992 560 R0
SYMATTR InstName U4
SYMATTR Value K=0.1095
SYMBOL add -688 560 R0
SYMATTR InstName U5
SYMBOL Proportional -992 640 R0
WINDOW 3 0 0 Invisible 2
SYMATTR Value K=8.6000e-05
SYMATTR InstName U6
SYMBOL add -880 640 R0
SYMATTR InstName U7
SYMBOL LTspiceControlLibrary\\Math\\Functions\\limit -816 640 R0
SYMATTR Value y=-4 z=4
SYMATTR InstName U9
SYMBOL LTspiceControlLibrary\\Math\\Functions\\limit -624 560 R0
SYMATTR Value y=0 z=4
SYMATTR InstName U10
SYMBOL LTspiceControlLibrary\\Discrete\\UnitDelay -16 720 R180
SYMATTR Value T=2e-5
SYMATTR InstName U1
SYMBOL Proportional -240 560 R0
SYMATTR InstName U11
SYMATTR Value K=0.1095
SYMBOL add 64 560 R0
SYMATTR InstName U13
SYMBOL Proportional -240 640 R0
WINDOW 3 0 0 Invisible 2
SYMATTR Value K=0.0540
SYMATTR InstName U14
SYMBOL add -128 640 R0
SYMATTR InstName U16
SYMBOL LTspiceControlLibrary\\Math\\Functions\\limit -64 640 R0
SYMATTR Value y=-100 z=100
SYMATTR InstName U18
SYMBOL Proportional -464 464 R90
WINDOW 3 0 0 Invisible 2
SYMATTR Value K=1/(24*sqrt(2))
SYMATTR InstName U19
SYMBOL LTspiceControlLibrary\\Discrete\\UnitDelay -464 400 R90
SYMATTR Value T=2e-5
SYMATTR InstName U21
SYMBOL LTspiceControlLibrary\\Discrete\\UnitDelay -416 624 R0
SYMATTR Value T=2e-5
SYMATTR InstName U17
SYMBOL LTspiceControlLibrary\\Math\\Functions\\limit 160 560 R0
SYMATTR Value y=0 z=1
SYMATTR InstName U20
SYMBOL InfineonNMOS\\IPA052N08NM5S_L0 -192 96 R0
SYMATTR InstName U22
SYMBOL LTspiceControlLibrary\\PulseModulations\\PWM 496 560 R0
SYMATTR Value Vin1=0 Vin2=1 Tperiod=2e-5
SYMATTR InstName U2
SYMBOL LTspiceControlLibrary\\Math\\Operands\\mul 608 560 R0
SYMATTR InstName U23
SYMBOL voltage 624 592 R0
WINDOW 123 0 0 Left 0
WINDOW 39 0 0 Left 0
SYMATTR InstName V2
SYMATTR Value 10
SYMBOL schottky -48 -48 R270
WINDOW 0 32 32 VTop 2
WINDOW 3 0 32 VBottom 2
SYMATTR InstName D6
SYMATTR Value RBR20NS60A
SYMATTR Description Diode
SYMATTR Type diode
SYMBOL cap -368 80 R0
SYMATTR InstName C1
SYMATTR Value 1µ
SYMBOL cap 64 64 R0
SYMATTR InstName C2
SYMATTR Value 3300µ
TEXT -968 -312 Left 2 !.tran 0 500m 0 startup
TEXT -968 -280 Left 2 !.model SW SW(Ron=1 Roff=1Meg Vt=0.5)\n.model D D(Ron=.1 Roff=1Meg Vfwd=.4)
TEXT -1016 384 Left 4 ;Controller
TEXT -1024 -184 Left 4 ;Circuit
TEXT -968 -224 Left 2 !.ic V(DC_P)=0
TEXT -976 440 Left 2 ;voltage controller
TEXT -544 344 Left 2 ;current controller
TEXT -1024 -352 Left 4 ;Config
TEXT -1048 -472 Left 5 ;CCM-PFC
TEXT -1000 -424 Left 2 ;Continuous Conduction Mode Power Factor Correction
TEXT -312 -288 Left 2 ;NOTE\nSwitching elements are approximated\nby imaginary variable dc transformers.\nThis reduces transient analysis time.\nDiscontinuous conduction mode is NOT considered.
TEXT 976 -160 Left 2 !.MODEL DRBR5LAM60ATF D\n+ IS=648.10E-9\n+ N=.94915\n+ RS=16.414E-3\n+ IKF=1.8382\n+ XTI=2\n+ EG=.69\n+ CJO=839.22E-12\n+ M=.53961\n+ VJ=.50407\n+ ISR=6.2071E-6\n+ NR=1.2000\n+ BV=60\n+ TRS1=0.0060
